<?xml version="1.0" encoding="UTF-8"?>
<routes xmlns:xsi="http://www.w3.org/2001/XMLSchema-instance"
        xsi:noNamespaceSchemaLocation="http://sumo.dlr.de/xsd/routes_file.xsd">

    <!-- Vehicle type definition -->
    <vType id="car" accel="2.6" decel="4.5" length="5.0" maxSpeed="15"/>

    <!-- Flows (continuous vehicles) -->
    <!-- E1 -> E1.51 -->
    <flow id="flow0" from="E1" to="E1.51" type="car" begin="0" end="1000" probability="0.1" departLane="random" departSpeed="max"/>

    <!-- E1 -> E0.40 -->
    <flow id="flow1" from="E1" to="E0.40" type="car" begin="0" end="1000" probability="0.1" departLane="random" departSpeed="max"/>

    <!-- -E0 -> E1.51 -->
    <flow id="flow2" from="-E0" to="E1.51" type="car" begin="0" end="1000" probability="0.1" departLane="random" departSpeed="max"/>

    <!-- -E0 -> -E0.47 -->
    <flow id="flow3" from="-E0" to="-E0.47" type="car" begin="0" end="1000" probability="0.1" departLane="random" departSpeed="max"/>

    <!-- -E1 -> -E1.45 -->
    <flow id="flow4" from="-E1" to="-E1.45" type="car" begin="0" end="1000" probability="0.1" departLane="random" departSpeed="max"/>

    <!-- -E1 -> -E0.47 -->
    <flow id="flow5" from="-E1" to="-E0.47" type="car" begin="0" end="1000" probability="0.1" departLane="random" departSpeed="max"/>

    <!-- E0 -> E0.40 -->
    <flow id="flow6" from="E0" to="E0.40" type="car" begin="0" end="1000" probability="0.1" departLane="random" departSpeed="max"/>

    <!-- E0 -> -E1.45 -->
    <flow id="flow7" from="E0" to="-E1.45" type="car" begin="0" end="1000" probability="0.1" departLane="random" departSpeed="max"/>


</routes>